
*** ChampSim Multicore Out-of-Order Simulator ***

All cores run uncompressed traces
Warmup Instructions: 50000000
Simulation Instructions: 400000000
Number of CPUs: 1
LLC sets: 8192
LLC ways: 16
Off-chip DRAM Size: 4096 MB Channels: 1 Width: 64-bit Data Rate: 6400 MT/s
CPU 0 runs ../ONNX-Runtime-Inference/mobilenetv2.champsim.trace
.trace
CPU 0 Bimodal branch predictor
BTB has LRU replacement policy
ITLB has LRU replacement policy
DTLB has LRU replacement policy
STLB has LRU replacement policy
L1I has LRU replacement policy
L1D has LRU replacement policy
L2C has LRU replacement policy
Heartbeat CPU 0 instructions: 10000003 cycles: 3432057 heartbeat IPC: 2.91371 cumulative IPC: 2.91371 (Simulation time: 0 hr 0 min 4 sec) 
Heartbeat CPU 0 instructions: 20000000 cycles: 6664807 heartbeat IPC: 3.09334 cumulative IPC: 3.00084 (Simulation time: 0 hr 0 min 10 sec) 
Heartbeat CPU 0 instructions: 30000000 cycles: 9851020 heartbeat IPC: 3.13852 cumulative IPC: 3.04537 (Simulation time: 0 hr 0 min 18 sec) 
Heartbeat CPU 0 instructions: 40000003 cycles: 13940760 heartbeat IPC: 2.44514 cumulative IPC: 2.86928 (Simulation time: 0 hr 0 min 23 sec) 
Heartbeat CPU 0 instructions: 50000003 cycles: 18025797 heartbeat IPC: 2.44796 cumulative IPC: 2.7738 (Simulation time: 0 hr 0 min 28 sec) 

Warmup complete CPU 0 instructions: 50000003 cycles: 18025797 (Simulation time: 0 hr 0 min 28 sec) 

Heartbeat CPU 0 instructions: 60000002 cycles: 30326610 heartbeat IPC: 0.812954 cumulative IPC: 0.812954 (Simulation time: 0 hr 0 min 39 sec) 
Heartbeat CPU 0 instructions: 70000000 cycles: 45194021 heartbeat IPC: 0.672612 cumulative IPC: 0.736154 (Simulation time: 0 hr 0 min 52 sec) 
Heartbeat CPU 0 instructions: 80000000 cycles: 62311890 heartbeat IPC: 0.584185 cumulative IPC: 0.677414 (Simulation time: 0 hr 1 min 1 sec) 
Heartbeat CPU 0 instructions: 90000003 cycles: 76113885 heartbeat IPC: 0.724533 cumulative IPC: 0.688609 (Simulation time: 0 hr 1 min 10 sec) 
Heartbeat CPU 0 instructions: 100000002 cycles: 90218503 heartbeat IPC: 0.708988 cumulative IPC: 0.692591 (Simulation time: 0 hr 1 min 19 sec) 
Heartbeat CPU 0 instructions: 110000000 cycles: 100038895 heartbeat IPC: 1.01829 cumulative IPC: 0.73159 (Simulation time: 0 hr 1 min 29 sec) 
Heartbeat CPU 0 instructions: 120000000 cycles: 114930266 heartbeat IPC: 0.67153 cumulative IPC: 0.722361 (Simulation time: 0 hr 1 min 37 sec) 
Heartbeat CPU 0 instructions: 130000001 cycles: 127289120 heartbeat IPC: 0.809137 cumulative IPC: 0.732176 (Simulation time: 0 hr 1 min 48 sec) 
Heartbeat CPU 0 instructions: 140000003 cycles: 140247253 heartbeat IPC: 0.771716 cumulative IPC: 0.736368 (Simulation time: 0 hr 1 min 57 sec) 
Heartbeat CPU 0 instructions: 150000001 cycles: 152756923 heartbeat IPC: 0.799381 cumulative IPC: 0.742219 (Simulation time: 0 hr 2 min 6 sec) 
Heartbeat CPU 0 instructions: 160000001 cycles: 167586181 heartbeat IPC: 0.674343 cumulative IPC: 0.735489 (Simulation time: 0 hr 2 min 15 sec) 
Heartbeat CPU 0 instructions: 170000002 cycles: 179115248 heartbeat IPC: 0.867373 cumulative IPC: 0.744928 (Simulation time: 0 hr 2 min 24 sec) 
Heartbeat CPU 0 instructions: 180000001 cycles: 190497360 heartbeat IPC: 0.878572 cumulative IPC: 0.753747 (Simulation time: 0 hr 2 min 34 sec) 
Heartbeat CPU 0 instructions: 190000001 cycles: 205533813 heartbeat IPC: 0.66505 cumulative IPC: 0.746635 (Simulation time: 0 hr 2 min 42 sec) 
Heartbeat CPU 0 instructions: 200000002 cycles: 213240140 heartbeat IPC: 1.29764 cumulative IPC: 0.768386 (Simulation time: 0 hr 2 min 52 sec) 
Heartbeat CPU 0 instructions: 210000001 cycles: 228631359 heartbeat IPC: 0.649721 cumulative IPC: 0.759714 (Simulation time: 0 hr 3 min 0 sec) 
Heartbeat CPU 0 instructions: 220000000 cycles: 236242135 heartbeat IPC: 1.31393 cumulative IPC: 0.779043 (Simulation time: 0 hr 3 min 10 sec) 
Heartbeat CPU 0 instructions: 230000002 cycles: 248022236 heartbeat IPC: 0.848889 cumulative IPC: 0.782621 (Simulation time: 0 hr 3 min 18 sec) 
Heartbeat CPU 0 instructions: 240000002 cycles: 260594507 heartbeat IPC: 0.795401 cumulative IPC: 0.783283 (Simulation time: 0 hr 3 min 27 sec) 
Heartbeat CPU 0 instructions: 250000000 cycles: 268712074 heartbeat IPC: 1.2319 cumulative IPC: 0.79781 (Simulation time: 0 hr 3 min 37 sec) 
Heartbeat CPU 0 instructions: 260000003 cycles: 280894057 heartbeat IPC: 0.820885 cumulative IPC: 0.798879 (Simulation time: 0 hr 3 min 46 sec) 
Heartbeat CPU 0 instructions: 270000001 cycles: 293474875 heartbeat IPC: 0.794861 cumulative IPC: 0.798696 (Simulation time: 0 hr 3 min 55 sec) 
Heartbeat CPU 0 instructions: 280000003 cycles: 301947356 heartbeat IPC: 1.18029 cumulative IPC: 0.810083 (Simulation time: 0 hr 4 min 4 sec) 
Heartbeat CPU 0 instructions: 290000000 cycles: 315052151 heartbeat IPC: 0.763079 cumulative IPC: 0.808009 (Simulation time: 0 hr 4 min 13 sec) 
Heartbeat CPU 0 instructions: 300000000 cycles: 322742709 heartbeat IPC: 1.3003 cumulative IPC: 0.820434 (Simulation time: 0 hr 4 min 23 sec) 
Heartbeat CPU 0 instructions: 310000003 cycles: 336613002 heartbeat IPC: 0.720966 cumulative IPC: 0.816103 (Simulation time: 0 hr 4 min 32 sec) 
Heartbeat CPU 0 instructions: 320000003 cycles: 343768792 heartbeat IPC: 1.39747 cumulative IPC: 0.828874 (Simulation time: 0 hr 4 min 42 sec) 
Heartbeat CPU 0 instructions: 330000000 cycles: 349589094 heartbeat IPC: 1.71812 cumulative IPC: 0.844484 (Simulation time: 0 hr 4 min 52 sec) 
Heartbeat CPU 0 instructions: 340000003 cycles: 375068368 heartbeat IPC: 0.392476 cumulative IPC: 0.812228 (Simulation time: 0 hr 5 min 8 sec) 
Heartbeat CPU 0 instructions: 350000003 cycles: 389026497 heartbeat IPC: 0.716428 cumulative IPC: 0.808624 (Simulation time: 0 hr 5 min 17 sec) 
Heartbeat CPU 0 instructions: 360000003 cycles: 404404861 heartbeat IPC: 0.650264 cumulative IPC: 0.802321 (Simulation time: 0 hr 5 min 27 sec) 
Heartbeat CPU 0 instructions: 370000001 cycles: 420872974 heartbeat IPC: 0.607234 cumulative IPC: 0.794346 (Simulation time: 0 hr 5 min 37 sec) 
Heartbeat CPU 0 instructions: 380000002 cycles: 444460497 heartbeat IPC: 0.423953 cumulative IPC: 0.773858 (Simulation time: 0 hr 5 min 52 sec) 
Heartbeat CPU 0 instructions: 390000001 cycles: 464313955 heartbeat IPC: 0.503691 cumulative IPC: 0.76184 (Simulation time: 0 hr 6 min 6 sec) 
Heartbeat CPU 0 instructions: 400000000 cycles: 482007801 heartbeat IPC: 0.565168 cumulative IPC: 0.75434 (Simulation time: 0 hr 6 min 15 sec) 
Heartbeat CPU 0 instructions: 410000001 cycles: 499248143 heartbeat IPC: 0.580035 cumulative IPC: 0.748095 (Simulation time: 0 hr 6 min 23 sec) 
Heartbeat CPU 0 instructions: 420000000 cycles: 516513942 heartbeat IPC: 0.57918 cumulative IPC: 0.742244 (Simulation time: 0 hr 6 min 32 sec) 
Heartbeat CPU 0 instructions: 430000000 cycles: 533784087 heartbeat IPC: 0.579034 cumulative IPC: 0.736779 (Simulation time: 0 hr 6 min 40 sec) 
Heartbeat CPU 0 instructions: 440000000 cycles: 547505487 heartbeat IPC: 0.728789 cumulative IPC: 0.736572 (Simulation time: 0 hr 6 min 51 sec) 
*** Reached end of trace for Core: 0 Repeating trace: ../ONNX-Runtime-Inference/mobilenetv2.champsim.trace
Heartbeat CPU 0 instructions: 450000001 cycles: 563154578 heartbeat IPC: 0.639015 cumulative IPC: 0.733772 (Simulation time: 0 hr 7 min 3 sec) 
Finished CPU 0 instructions: 400000001 cycles: 545128942 cumulative IPC: 0.733771 (Simulation time: 0 hr 7 min 3 sec) 

ChampSim completed all CPUs

Region of Interest Statistics

CPU 0 cumulative IPC: 0.733771 instructions: 400000001 cycles: 545128942
ITLB TOTAL     ACCESS:   64416416  HIT:   64414242  MISS:       2174  HIT %:    99.9966  MISS %: 0.00337492   MPKI: 0.005435
ITLB LOAD TRANSLATION ACCESS:   64416416  HIT:   64414242  MISS:       2174  HIT %:    99.9966  MISS %: 0.00337492   MPKI: 0.005435
ITLB PREFETCH  REQUESTED:          0  ISSUED:          0  USEFUL:          0  USELESS:          0
ITLB USEFUL LOAD PREFETCHES:          0 PREFETCH ISSUED TO LOWER LEVEL:          0  ACCURACY: -nan
ITLB TIMELY PREFETCHES:          0 LATE PREFETCHES: 0 DROPPED PREFETCHES: 0
ITLB PREFETCHES SAME FILL-ORIGIN LEVEL: 0 DIFFERENT FILL-ORIGIN LEVEL: 0
ITLB AVERAGE MISS LATENCY: 39.8997 cycles
ITLB RQ	ACCESS:   79289162	FORWARD:          0	MERGED:   14872313	TO_CACHE:   64416849

DTLB TOTAL     ACCESS:   77163053  HIT:   76949180  MISS:     213873  HIT %:    99.7228  MISS %:    0.27717   MPKI: 0.534682
DTLB LOAD TRANSLATION ACCESS:   77163053  HIT:   76949180  MISS:     213873  HIT %:    99.7228  MISS %:    0.27717   MPKI: 0.534682
DTLB PREFETCH  REQUESTED:          0  ISSUED:          0  USEFUL:          0  USELESS:          0
DTLB USEFUL LOAD PREFETCHES:          0 PREFETCH ISSUED TO LOWER LEVEL:          0  ACCURACY: -nan
DTLB TIMELY PREFETCHES:          0 LATE PREFETCHES: 0 DROPPED PREFETCHES: 0
DTLB PREFETCHES SAME FILL-ORIGIN LEVEL: 0 DIFFERENT FILL-ORIGIN LEVEL: 0
DTLB AVERAGE MISS LATENCY: 22.2928 cycles
DTLB RQ	ACCESS:  109514125	FORWARD:          0	MERGED:   32314817	TO_CACHE:   77199308

STLB TOTAL     ACCESS:     216047  HIT:     200655  MISS:      15392  HIT %:    92.8756  MISS %:    7.12438   MPKI: 0.03848
STLB LOAD TRANSLATION ACCESS:     216047  HIT:     200655  MISS:      15392  HIT %:    92.8756  MISS %:    7.12438   MPKI: 0.03848
STLB PREFETCH  REQUESTED:          0  ISSUED:          0  USEFUL:          0  USELESS:          0
STLB USEFUL LOAD PREFETCHES:          0 PREFETCH ISSUED TO LOWER LEVEL:          0  ACCURACY: -nan
STLB TIMELY PREFETCHES:          0 LATE PREFETCHES: 0 DROPPED PREFETCHES: 0
STLB PREFETCHES SAME FILL-ORIGIN LEVEL: 0 DIFFERENT FILL-ORIGIN LEVEL: 0
STLB AVERAGE MISS LATENCY: 188.353 cycles
STLB RQ	ACCESS:     216048	FORWARD:          0	MERGED:          0	TO_CACHE:     216048

STLB Hit, L1D data hit: 0
STLB Hit, L2C data hit: 0
STLB Hit, LLC data hit: 0
STLB Hit, LLC data miss: 0
STLB STLB hints to L2: 0
L1D TOTAL     ACCESS:   91443578  HIT:   52289813  MISS:   39153765  HIT %:    57.1826  MISS %:    42.8174   MPKI: 97.8844
L1D LOAD      ACCESS:   67230658  HIT:   40058304  MISS:   27172354  HIT %:    59.5834  MISS %:    40.4166   MPKI: 67.9309
L1D RFO       ACCESS:   24212920  HIT:   12231509  MISS:   11981411  HIT %:    50.5165  MISS %:    49.4835   MPKI: 29.9535
L1D PREFETCH  REQUESTED:          0  ISSUED:          0  USEFUL:          0  USELESS:          0
L1D USEFUL LOAD PREFETCHES:          0 PREFETCH ISSUED TO LOWER LEVEL:          0  ACCURACY: -nan
L1D TIMELY PREFETCHES:          0 LATE PREFETCHES: 0 DROPPED PREFETCHES: 0
L1D PREFETCHES SAME FILL-ORIGIN LEVEL: 0 DIFFERENT FILL-ORIGIN LEVEL: 0
L1D AVERAGE MISS LATENCY: 23.5318 cycles
L1D RQ	ACCESS:   98272251	FORWARD:          0	MERGED:   19579744	TO_CACHE:   78692436
L1D WQ	ACCESS:   30900111	FORWARD:         71	MERGED:      78422	TO_CACHE:   30821689

L1D UNIQUE REGIONS ACCESSED: 0
L1D REGIONS CONFLICTS: 0
L1D Cross Page Prefetch Requests: 0
L1D Same Page Prefetch Requests: 0
L1D ROI Sum of L1D PQ occupancy: 0
L1D PREFETCHES PUSHED FROM L2C: 0
L1I TOTAL     ACCESS:   76817151  HIT:   38063009  MISS:   38754142  HIT %:    49.5501  MISS %:    50.4499   MPKI: 96.8854
L1I LOAD      ACCESS:   76817151  HIT:   38063009  MISS:   38754142  HIT %:    49.5501  MISS %:    50.4499   MPKI: 96.8854
L1I PREFETCH  REQUESTED:          0  ISSUED:          0  USEFUL:          0  USELESS:          0
L1I USEFUL LOAD PREFETCHES:          0 PREFETCH ISSUED TO LOWER LEVEL:          0  ACCURACY: -nan
L1I TIMELY PREFETCHES:          0 LATE PREFETCHES: 0 DROPPED PREFETCHES: 0
L1I PREFETCHES SAME FILL-ORIGIN LEVEL: 0 DIFFERENT FILL-ORIGIN LEVEL: 0
L1I AVERAGE MISS LATENCY: 8.25859 cycles
L1I RQ	ACCESS:  103121430	FORWARD:          0	MERGED:   23832268	TO_CACHE:   79289162

BTB TOTAL     ACCESS:   42030712  HIT:   42023488  MISS:       7224  HIT %:    99.9828  MISS %:  0.0171874   MPKI: 0.01806
BTB BRANCH_DIRECT_JUMP	ACCESS:    2884781  HIT:    2884362  MISS:        419
BTB BRANCH_INDIRECT	ACCESS:      31574  HIT:      31530  MISS:         44
BTB BRANCH_CONDITIONAL	ACCESS:   38786531  HIT:   38785501  MISS:       1030
BTB BRANCH_DIRECT_CALL	ACCESS:     151361  HIT:     150808  MISS:        553
BTB BRANCH_INDIRECT_CALL	ACCESS:      12552  HIT:      12452  MISS:        100
BTB BRANCH_RETURN	ACCESS:     163913  HIT:     158835  MISS:       5078
BTB BRANCH_OTHER ACCESS:          0  HIT:          0  MISS:          0

L2C TOTAL     ACCESS:   87220627  HIT:   84444133  MISS:    2776494  HIT %:    96.8167  MISS %:     3.1833   MPKI: 6.94123
L2C LOAD      ACCESS:   65825696  HIT:   63203292  MISS:    2622404  HIT %:    96.0161  MISS %:    3.98386   MPKI: 6.55601
L2C DATA LOAD MPKI: 6.48419
L2C INSTRUCTION LOAD MPKI: 0.07182
L2C RFO       ACCESS:   10142446  HIT:    9993932  MISS:     148514  HIT %:    98.5357  MISS %:    1.46428   MPKI: 0.371285
L2C WRITEBACK ACCESS:   11237064  HIT:   11236999  MISS:         65  HIT %:    99.9994  MISS %: 0.000578443   MPKI: 0.0001625
L2C LOAD TRANSLATION ACCESS:      15421  HIT:       9910  MISS:       5511  HIT %:     64.263  MISS %:     35.737   MPKI: 0.0137775
L2C PREFETCH  REQUESTED:          0  ISSUED:          0  USEFUL:          0  USELESS:          0
L2C USEFUL LOAD PREFETCHES:          0 PREFETCH ISSUED TO LOWER LEVEL:          0  ACCURACY: -nan
L2C TIMELY PREFETCHES:          0 LATE PREFETCHES: 0 DROPPED PREFETCHES: 0
L2C PREFETCHES SAME FILL-ORIGIN LEVEL: 0 DIFFERENT FILL-ORIGIN LEVEL: 0
L2C AVERAGE MISS LATENCY: 221.568 cycles
L2C RQ	ACCESS:   77923329	FORWARD:          0	MERGED:          0	TO_CACHE:   75983564
L2C WQ	ACCESS:   12900470	FORWARD:    1939765	MERGED:    1663406	TO_CACHE:   11237064

L2C Instructions Evicting Data 28551
L2C Translations Evicting Data 5455
L2C Data Evicting Data 2708183
L2C Instructions Evicting Instructions 161
L2C Translations Evicting Instructions 48
L2C Data Evicting Instructions 28516
L2C Instructions Evicting Translations 16
L2C Translations Evicting Translations 8
L2C Data Evicting Translations 5491
L2C Dense regions hint from L2: 0
PSCL5 TOTAL     ACCESS:      15392  HIT:      15392  MISS:          0  HIT %:        100  MISS %:          0   MPKI: 0
PSCL5 LOAD TRANSLATION ACCESS:      15392  HIT:      15392  MISS:          0  HIT %:        100  MISS %:          0   MPKI: 0
PSCL5 PREFETCH  REQUESTED:          0  ISSUED:          0  USEFUL:          0  USELESS:          0
PSCL5 USEFUL LOAD PREFETCHES:          0 PREFETCH ISSUED TO LOWER LEVEL:          0  ACCURACY: -nan
PSCL5 TIMELY PREFETCHES:          0 LATE PREFETCHES: 0 DROPPED PREFETCHES: 0
PSCL5 PREFETCHES SAME FILL-ORIGIN LEVEL: 0 DIFFERENT FILL-ORIGIN LEVEL: 0

PSCL4 TOTAL     ACCESS:      15392  HIT:      15392  MISS:          0  HIT %:        100  MISS %:          0   MPKI: 0
PSCL4 LOAD TRANSLATION ACCESS:      15392  HIT:      15392  MISS:          0  HIT %:        100  MISS %:          0   MPKI: 0
PSCL4 PREFETCH  REQUESTED:          0  ISSUED:          0  USEFUL:          0  USELESS:          0
PSCL4 USEFUL LOAD PREFETCHES:          0 PREFETCH ISSUED TO LOWER LEVEL:          0  ACCURACY: -nan
PSCL4 TIMELY PREFETCHES:          0 LATE PREFETCHES: 0 DROPPED PREFETCHES: 0
PSCL4 PREFETCHES SAME FILL-ORIGIN LEVEL: 0 DIFFERENT FILL-ORIGIN LEVEL: 0

PSCL3 TOTAL     ACCESS:      15392  HIT:      15391  MISS:          1  HIT %:    99.9935  MISS %: 0.00649688   MPKI: 2.5e-06
PSCL3 LOAD TRANSLATION ACCESS:      15392  HIT:      15391  MISS:          1  HIT %:    99.9935  MISS %: 0.00649688   MPKI: 2.5e-06
PSCL3 PREFETCH  REQUESTED:          0  ISSUED:          0  USEFUL:          0  USELESS:          0
PSCL3 USEFUL LOAD PREFETCHES:          0 PREFETCH ISSUED TO LOWER LEVEL:          0  ACCURACY: -nan
PSCL3 TIMELY PREFETCHES:          0 LATE PREFETCHES: 0 DROPPED PREFETCHES: 0
PSCL3 PREFETCHES SAME FILL-ORIGIN LEVEL: 0 DIFFERENT FILL-ORIGIN LEVEL: 0

PSCL2 TOTAL     ACCESS:      15392  HIT:      15337  MISS:         55  HIT %:    99.6427  MISS %:   0.357328   MPKI: 0.0001375
PSCL2 LOAD TRANSLATION ACCESS:      15392  HIT:      15337  MISS:         55  HIT %:    99.6427  MISS %:   0.357328   MPKI: 0.0001375
PSCL2 PREFETCH  REQUESTED:          0  ISSUED:          0  USEFUL:          0  USELESS:          0
PSCL2 USEFUL LOAD PREFETCHES:          0 PREFETCH ISSUED TO LOWER LEVEL:          0  ACCURACY: -nan
PSCL2 TIMELY PREFETCHES:          0 LATE PREFETCHES: 0 DROPPED PREFETCHES: 0
PSCL2 PREFETCHES SAME FILL-ORIGIN LEVEL: 0 DIFFERENT FILL-ORIGIN LEVEL: 0

REUSE CACHE LLC REPLACEMENT FINAL STATS
CPU: 0
TOTAL ACCESS: 4205250 TOTAL MISS: 3941356 TOTAL HIT: 263894
TAG MISS: 4456190 TAG HIT: 294077
DATA MISS: 600 DATA HIT: 178890
TAG_HIT: 294077 DATA_HIT: 178890
MISS_RATE: 0.937247
HIT_RATE: 0.0627535
In Reuse Cache:
Total lines: 0

RAW hits: 517608
Loads Generated: 98789859
Loads sent to L1D: 98272251
Stores Generated: 30900110
Stores sent to L1D: 30900111
Major fault: 0 Minor fault: 11491
Allocated PAGES: 11491

DRAM Statistics
 CHANNEL 0
 RQ ROW_BUFFER_HIT:     891053  ROW_BUFFER_MISS:    1720128
 DBUS_CONGESTED:       3091
 WQ ROW_BUFFER_HIT:     691713  ROW_BUFFER_MISS:     637288  FULL:       2950

 AVG_CONGESTED_CYCLE: 5
 All warmup complete: 2
Channel 0 Bank busy for read cycles: 0
Channel 0 Bank busy for write cycles: 0
Channel 0
Rank 0
0banks busy for read cycles: 336671070
0banks busy for write cycles: 112074
1banks busy for read cycles: 70328360
1banks busy for write cycles: 13848504
2banks busy for read cycles: 43256292
2banks busy for write cycles: 6539581
3banks busy for read cycles: 20135049
3banks busy for write cycles: 4872100
4banks busy for read cycles: 6243508
4banks busy for write cycles: 4712027
5banks busy for read cycles: 3753617
5banks busy for write cycles: 3715427
6banks busy for read cycles: 3792386
6banks busy for write cycles: 3343973
7banks busy for read cycles: 1048139
7banks busy for write cycles: 3607489
8banks busy for read cycles: 1665824
8banks busy for write cycles: 17483523

CPU 0 Branch Prediction Accuracy: 92.7126% MPKI: 8.09865 Average ROB Occupancy at Mispredict: 29.3406
Branch types
NOT_BRANCH: 355546891 88.8867%
BRANCH_DIRECT_JUMP: 2884781 0.721195%
BRANCH_INDIRECT: 31574 0.0078935%
BRANCH_CONDITIONAL: 41208922 10.3022%
BRANCH_DIRECT_CALL: 151361 0.0378402%
BRANCH_INDIRECT_CALL: 12552 0.003138%
BRANCH_RETURN: 163913 0.0409782%
BRANCH_OTHER: 0 0%

DRAM PAGES: 1048576
Allocated PAGES: 11491
