
*** ChampSim Multicore Out-of-Order Simulator ***

All cores run uncompressed traces
Warmup Instructions: 50000000
Simulation Instructions: 400000000
Number of CPUs: 1
LLC sets: 8192
LLC ways: 16
Off-chip DRAM Size: 4096 MB Channels: 1 Width: 64-bit Data Rate: 6400 MT/s
CPU 0 runs ../ONNX-Runtime-Inference/squeezenet1.1-7.2.champsim.trace
.trace
CPU 0 Bimodal branch predictor
BTB has LRU replacement policy
ITLB has LRU replacement policy
DTLB has LRU replacement policy
STLB has LRU replacement policy
L1I has LRU replacement policy
L1D has LRU replacement policy
L2C has LRU replacement policy
Heartbeat CPU 0 instructions: 10000001 cycles: 3413888 heartbeat IPC: 2.92921 cumulative IPC: 2.92921 (Simulation time: 0 hr 0 min 6 sec) 
Heartbeat CPU 0 instructions: 20000002 cycles: 10498750 heartbeat IPC: 1.41146 cumulative IPC: 1.90499 (Simulation time: 0 hr 0 min 15 sec) 
Heartbeat CPU 0 instructions: 30000003 cycles: 17491153 heartbeat IPC: 1.43012 cumulative IPC: 1.71515 (Simulation time: 0 hr 0 min 23 sec) 
Heartbeat CPU 0 instructions: 40000000 cycles: 22227571 heartbeat IPC: 2.1113 cumulative IPC: 1.79957 (Simulation time: 0 hr 0 min 28 sec) 
Heartbeat CPU 0 instructions: 50000002 cycles: 26433101 heartbeat IPC: 2.37782 cumulative IPC: 1.89157 (Simulation time: 0 hr 0 min 36 sec) 

Warmup complete CPU 0 instructions: 50000002 cycles: 26433101 (Simulation time: 0 hr 0 min 36 sec) 

Heartbeat CPU 0 instructions: 60000003 cycles: 49659439 heartbeat IPC: 0.430546 cumulative IPC: 0.430546 (Simulation time: 0 hr 0 min 47 sec) 
Heartbeat CPU 0 instructions: 70000002 cycles: 62520211 heartbeat IPC: 0.777558 cumulative IPC: 0.554215 (Simulation time: 0 hr 0 min 56 sec) 
Heartbeat CPU 0 instructions: 80000002 cycles: 76003312 heartbeat IPC: 0.741669 cumulative IPC: 0.605202 (Simulation time: 0 hr 1 min 4 sec) 
Heartbeat CPU 0 instructions: 90000003 cycles: 89742087 heartbeat IPC: 0.727867 cumulative IPC: 0.631822 (Simulation time: 0 hr 1 min 13 sec) 
Heartbeat CPU 0 instructions: 100000001 cycles: 99695344 heartbeat IPC: 1.0047 cumulative IPC: 0.68248 (Simulation time: 0 hr 1 min 21 sec) 
Heartbeat CPU 0 instructions: 110000000 cycles: 109881315 heartbeat IPC: 0.981742 cumulative IPC: 0.719009 (Simulation time: 0 hr 1 min 29 sec) 
Heartbeat CPU 0 instructions: 120000001 cycles: 123167889 heartbeat IPC: 0.75264 cumulative IPC: 0.723628 (Simulation time: 0 hr 1 min 36 sec) 
Heartbeat CPU 0 instructions: 130000001 cycles: 132932867 heartbeat IPC: 1.02407 cumulative IPC: 0.751175 (Simulation time: 0 hr 1 min 43 sec) 
Heartbeat CPU 0 instructions: 140000002 cycles: 160741254 heartbeat IPC: 0.359604 cumulative IPC: 0.670101 (Simulation time: 0 hr 1 min 57 sec) 
Heartbeat CPU 0 instructions: 150000001 cycles: 191590194 heartbeat IPC: 0.32416 cumulative IPC: 0.605484 (Simulation time: 0 hr 2 min 10 sec) 
Heartbeat CPU 0 instructions: 160000000 cycles: 204575140 heartbeat IPC: 0.770122 cumulative IPC: 0.617485 (Simulation time: 0 hr 2 min 19 sec) 
Heartbeat CPU 0 instructions: 170000000 cycles: 218938516 heartbeat IPC: 0.696215 cumulative IPC: 0.623359 (Simulation time: 0 hr 2 min 27 sec) 
Heartbeat CPU 0 instructions: 180000000 cycles: 242138452 heartbeat IPC: 0.431036 cumulative IPC: 0.602674 (Simulation time: 0 hr 2 min 39 sec) 
Heartbeat CPU 0 instructions: 190000000 cycles: 254965555 heartbeat IPC: 0.779599 cumulative IPC: 0.612604 (Simulation time: 0 hr 2 min 47 sec) 
Heartbeat CPU 0 instructions: 200000000 cycles: 268429803 heartbeat IPC: 0.742708 cumulative IPC: 0.619843 (Simulation time: 0 hr 2 min 56 sec) 
Heartbeat CPU 0 instructions: 210000000 cycles: 282132830 heartbeat IPC: 0.729766 cumulative IPC: 0.625734 (Simulation time: 0 hr 3 min 5 sec) 
Heartbeat CPU 0 instructions: 220000000 cycles: 292092772 heartbeat IPC: 1.00402 cumulative IPC: 0.639916 (Simulation time: 0 hr 3 min 12 sec) 
Heartbeat CPU 0 instructions: 230000003 cycles: 302222229 heartbeat IPC: 0.98722 cumulative IPC: 0.652673 (Simulation time: 0 hr 3 min 20 sec) 
Heartbeat CPU 0 instructions: 240000000 cycles: 315579567 heartbeat IPC: 0.748652 cumulative IPC: 0.657106 (Simulation time: 0 hr 3 min 27 sec) 
Heartbeat CPU 0 instructions: 250000000 cycles: 325281631 heartbeat IPC: 1.03071 cumulative IPC: 0.669235 (Simulation time: 0 hr 3 min 34 sec) 
Heartbeat CPU 0 instructions: 260000000 cycles: 353082930 heartbeat IPC: 0.359695 cumulative IPC: 0.64289 (Simulation time: 0 hr 3 min 47 sec) 
Heartbeat CPU 0 instructions: 270000001 cycles: 383937264 heartbeat IPC: 0.324104 cumulative IPC: 0.615377 (Simulation time: 0 hr 4 min 1 sec) 
Heartbeat CPU 0 instructions: 280000000 cycles: 397627034 heartbeat IPC: 0.730472 cumulative IPC: 0.619622 (Simulation time: 0 hr 4 min 10 sec) 
Heartbeat CPU 0 instructions: 290000000 cycles: 411272023 heartbeat IPC: 0.73287 cumulative IPC: 0.623638 (Simulation time: 0 hr 4 min 18 sec) 
Heartbeat CPU 0 instructions: 300000001 cycles: 434478951 heartbeat IPC: 0.430906 cumulative IPC: 0.612676 (Simulation time: 0 hr 4 min 29 sec) 
Heartbeat CPU 0 instructions: 310000003 cycles: 447298304 heartbeat IPC: 0.780071 cumulative IPC: 0.617775 (Simulation time: 0 hr 4 min 38 sec) 
Heartbeat CPU 0 instructions: 320000003 cycles: 460762253 heartbeat IPC: 0.742724 cumulative IPC: 0.621648 (Simulation time: 0 hr 4 min 46 sec) 
Heartbeat CPU 0 instructions: 330000000 cycles: 474467665 heartbeat IPC: 0.729639 cumulative IPC: 0.624952 (Simulation time: 0 hr 4 min 55 sec) 
Heartbeat CPU 0 instructions: 340000003 cycles: 484432533 heartbeat IPC: 1.00353 cumulative IPC: 0.633189 (Simulation time: 0 hr 5 min 2 sec) 
Heartbeat CPU 0 instructions: 350000000 cycles: 494523685 heartbeat IPC: 0.990967 cumulative IPC: 0.640902 (Simulation time: 0 hr 5 min 10 sec) 
Heartbeat CPU 0 instructions: 360000001 cycles: 507942265 heartbeat IPC: 0.745235 cumulative IPC: 0.643809 (Simulation time: 0 hr 5 min 18 sec) 
Heartbeat CPU 0 instructions: 370000001 cycles: 517579255 heartbeat IPC: 1.03767 cumulative IPC: 0.651537 (Simulation time: 0 hr 5 min 24 sec) 
Heartbeat CPU 0 instructions: 380000003 cycles: 545377677 heartbeat IPC: 0.359733 cumulative IPC: 0.635906 (Simulation time: 0 hr 5 min 38 sec) 
Heartbeat CPU 0 instructions: 390000000 cycles: 576232828 heartbeat IPC: 0.324095 cumulative IPC: 0.618407 (Simulation time: 0 hr 5 min 51 sec) 
Heartbeat CPU 0 instructions: 400000000 cycles: 590627166 heartbeat IPC: 0.694718 cumulative IPC: 0.620354 (Simulation time: 0 hr 6 min 1 sec) 
Heartbeat CPU 0 instructions: 410000000 cycles: 603565654 heartbeat IPC: 0.772888 cumulative IPC: 0.623774 (Simulation time: 0 hr 6 min 9 sec) 
Heartbeat CPU 0 instructions: 420000002 cycles: 626787129 heartbeat IPC: 0.430636 cumulative IPC: 0.616303 (Simulation time: 0 hr 6 min 20 sec) 
Heartbeat CPU 0 instructions: 430000000 cycles: 639598211 heartbeat IPC: 0.780574 cumulative IPC: 0.619735 (Simulation time: 0 hr 6 min 29 sec) 
Heartbeat CPU 0 instructions: 440000000 cycles: 653069026 heartbeat IPC: 0.742346 cumulative IPC: 0.622371 (Simulation time: 0 hr 6 min 37 sec) 
*** Reached end of trace for Core: 0 Repeating trace: ../ONNX-Runtime-Inference/squeezenet1.1-7.2.champsim.trace
Heartbeat CPU 0 instructions: 450000000 cycles: 666776378 heartbeat IPC: 0.729536 cumulative IPC: 0.624665 (Simulation time: 0 hr 6 min 46 sec) 
Finished CPU 0 instructions: 400000000 cycles: 640343488 cumulative IPC: 0.624665 (Simulation time: 0 hr 6 min 46 sec) 

ChampSim completed all CPUs

Region of Interest Statistics

CPU 0 cumulative IPC: 0.624665 instructions: 400000000 cycles: 640343488
ITLB TOTAL     ACCESS:   65317487  HIT:   65313634  MISS:       3853  HIT %:    99.9941  MISS %: 0.00589888   MPKI: 0.0096325
ITLB LOAD TRANSLATION ACCESS:   65317487  HIT:   65313634  MISS:       3853  HIT %:    99.9941  MISS %: 0.00589888   MPKI: 0.0096325
ITLB PREFETCH  REQUESTED:          0  ISSUED:          0  USEFUL:          0  USELESS:          0
ITLB USEFUL LOAD PREFETCHES:          0 PREFETCH ISSUED TO LOWER LEVEL:          0  ACCURACY: -nan
ITLB TIMELY PREFETCHES:          0 LATE PREFETCHES: 0 DROPPED PREFETCHES: 0
ITLB PREFETCHES SAME FILL-ORIGIN LEVEL: 0 DIFFERENT FILL-ORIGIN LEVEL: 0
ITLB AVERAGE MISS LATENCY: 15.7571 cycles
ITLB RQ	ACCESS:   79607274	FORWARD:          0	MERGED:   14288819	TO_CACHE:   65318455

DTLB TOTAL     ACCESS:  120273222  HIT:  119977898  MISS:     295324  HIT %:    99.7545  MISS %:   0.245544   MPKI: 0.73831
DTLB LOAD TRANSLATION ACCESS:  120273222  HIT:  119977898  MISS:     295324  HIT %:    99.7545  MISS %:   0.245544   MPKI: 0.73831
DTLB PREFETCH  REQUESTED:          0  ISSUED:          0  USEFUL:          0  USELESS:          0
DTLB USEFUL LOAD PREFETCHES:          0 PREFETCH ISSUED TO LOWER LEVEL:          0  ACCURACY: -nan
DTLB TIMELY PREFETCHES:          0 LATE PREFETCHES: 0 DROPPED PREFETCHES: 0
DTLB PREFETCHES SAME FILL-ORIGIN LEVEL: 0 DIFFERENT FILL-ORIGIN LEVEL: 0
DTLB AVERAGE MISS LATENCY: 11.2155 cycles
DTLB RQ	ACCESS:  164291629	FORWARD:          0	MERGED:   43946661	TO_CACHE:  120344968

STLB TOTAL     ACCESS:     299177  HIT:     290974  MISS:       8203  HIT %:    97.2581  MISS %:    2.74186   MPKI: 0.0205075
STLB LOAD TRANSLATION ACCESS:     299177  HIT:     290974  MISS:       8203  HIT %:    97.2581  MISS %:    2.74186   MPKI: 0.0205075
STLB PREFETCH  REQUESTED:          0  ISSUED:          0  USEFUL:          0  USELESS:          0
STLB USEFUL LOAD PREFETCHES:          0 PREFETCH ISSUED TO LOWER LEVEL:          0  ACCURACY: -nan
STLB TIMELY PREFETCHES:          0 LATE PREFETCHES: 0 DROPPED PREFETCHES: 0
STLB PREFETCHES SAME FILL-ORIGIN LEVEL: 0 DIFFERENT FILL-ORIGIN LEVEL: 0
STLB AVERAGE MISS LATENCY: 80.6172 cycles
STLB RQ	ACCESS:     299177	FORWARD:          0	MERGED:          0	TO_CACHE:     299177

STLB Hit, L1D data hit: 0
STLB Hit, L2C data hit: 0
STLB Hit, LLC data hit: 0
STLB Hit, LLC data miss: 0
STLB STLB hints to L2: 0
L1D TOTAL     ACCESS:  153295960  HIT:   84874469  MISS:   68421491  HIT %:    55.3664  MISS %:    44.6336   MPKI: 171.054
L1D LOAD      ACCESS:  127739979  HIT:   73195842  MISS:   54544137  HIT %:    57.3007  MISS %:    42.6993   MPKI: 136.36
L1D RFO       ACCESS:   25555981  HIT:   11678627  MISS:   13877354  HIT %:    45.6982  MISS %:    54.3018   MPKI: 34.6934
L1D PREFETCH  REQUESTED:          0  ISSUED:          0  USEFUL:          0  USELESS:          0
L1D USEFUL LOAD PREFETCHES:          0 PREFETCH ISSUED TO LOWER LEVEL:          0  ACCURACY: -nan
L1D TIMELY PREFETCHES:          0 LATE PREFETCHES: 0 DROPPED PREFETCHES: 0
L1D PREFETCHES SAME FILL-ORIGIN LEVEL: 0 DIFFERENT FILL-ORIGIN LEVEL: 0
L1D AVERAGE MISS LATENCY: 10.5955 cycles
L1D RQ	ACCESS:  149340121	FORWARD:          0	MERGED:   15575030	TO_CACHE:  133764734
L1D WQ	ACCESS:   30583606	FORWARD:        357	MERGED:      56711	TO_CACHE:   30526895

L1D UNIQUE REGIONS ACCESSED: 0
L1D REGIONS CONFLICTS: 0
L1D Cross Page Prefetch Requests: 0
L1D Same Page Prefetch Requests: 0
L1D ROI Sum of L1D PQ occupancy: 0
L1D PREFETCHES PUSHED FROM L2C: 0
L1I TOTAL     ACCESS:   78226224  HIT:   30150763  MISS:   48075461  HIT %:     38.543  MISS %:     61.457   MPKI: 120.189
L1I LOAD      ACCESS:   78226224  HIT:   30150763  MISS:   48075461  HIT %:     38.543  MISS %:     61.457   MPKI: 120.189
L1I PREFETCH  REQUESTED:          0  ISSUED:          0  USEFUL:          0  USELESS:          0
L1I USEFUL LOAD PREFETCHES:          0 PREFETCH ISSUED TO LOWER LEVEL:          0  ACCURACY: -nan
L1I TIMELY PREFETCHES:          0 LATE PREFETCHES: 0 DROPPED PREFETCHES: 0
L1I PREFETCHES SAME FILL-ORIGIN LEVEL: 0 DIFFERENT FILL-ORIGIN LEVEL: 0
L1I AVERAGE MISS LATENCY: 8.40948 cycles
L1I RQ	ACCESS:   91821803	FORWARD:          0	MERGED:   12214529	TO_CACHE:   79607274

BTB TOTAL     ACCESS:   15967619  HIT:   15959975  MISS:       7644  HIT %:    99.9521  MISS %:  0.0478719   MPKI: 0.01911
BTB BRANCH_DIRECT_JUMP	ACCESS:     584404  HIT:     584116  MISS:        288
BTB BRANCH_INDIRECT	ACCESS:        399  HIT:        397  MISS:          2
BTB BRANCH_CONDITIONAL	ACCESS:   15287157  HIT:   15286434  MISS:        723
BTB BRANCH_DIRECT_CALL	ACCESS:      22336  HIT:      21989  MISS:        347
BTB BRANCH_INDIRECT_CALL	ACCESS:      25495  HIT:      25361  MISS:        134
BTB BRANCH_RETURN	ACCESS:      47828  HIT:      41678  MISS:       6150
BTB BRANCH_OTHER ACCESS:          0  HIT:          0  MISS:          0

L2C TOTAL     ACCESS:  125764038  HIT:  122231605  MISS:    3532433  HIT %:    97.1912  MISS %:    2.80878   MPKI: 8.83108
L2C LOAD      ACCESS:  102618794  HIT:   99773881  MISS:    2844913  HIT %:    97.2277  MISS %:    2.77231   MPKI: 7.11228
L2C DATA LOAD MPKI: 6.97645
L2C INSTRUCTION LOAD MPKI: 0.135832
L2C RFO       ACCESS:   11163995  HIT:   10479389  MISS:     684606  HIT %:    93.8677  MISS %:    6.13227   MPKI: 1.71151
L2C WRITEBACK ACCESS:   11973046  HIT:   11972911  MISS:        135  HIT %:    99.9989  MISS %: 0.00112753   MPKI: 0.0003375
L2C LOAD TRANSLATION ACCESS:       8203  HIT:       5424  MISS:       2779  HIT %:    66.1222  MISS %:    33.8778   MPKI: 0.0069475
L2C PREFETCH  REQUESTED:          0  ISSUED:          0  USEFUL:          0  USELESS:          0
L2C USEFUL LOAD PREFETCHES:          0 PREFETCH ISSUED TO LOWER LEVEL:          0  ACCURACY: -nan
L2C TIMELY PREFETCHES:          0 LATE PREFETCHES: 0 DROPPED PREFETCHES: 0
L2C PREFETCHES SAME FILL-ORIGIN LEVEL: 0 DIFFERENT FILL-ORIGIN LEVEL: 0
L2C AVERAGE MISS LATENCY: 48.6026 cycles
L2C RQ	ACCESS:  116505152	FORWARD:          0	MERGED:          0	TO_CACHE:  113790990
L2C WQ	ACCESS:   14688000	FORWARD:    2714162	MERGED:    2714954	TO_CACHE:   11973046

L2C Instructions Evicting Data 53561
L2C Translations Evicting Data 2752
L2C Data Evicting Data 3485380
L2C Instructions Evicting Instructions 759
L2C Translations Evicting Instructions 27
L2C Data Evicting Instructions 53588
L2C Instructions Evicting Translations 13
L2C Translations Evicting Translations 0
L2C Data Evicting Translations 2765
L2C Dense regions hint from L2: 0
PSCL5 TOTAL     ACCESS:       8203  HIT:       8203  MISS:          0  HIT %:        100  MISS %:          0   MPKI: 0
PSCL5 LOAD TRANSLATION ACCESS:       8203  HIT:       8203  MISS:          0  HIT %:        100  MISS %:          0   MPKI: 0
PSCL5 PREFETCH  REQUESTED:          0  ISSUED:          0  USEFUL:          0  USELESS:          0
PSCL5 USEFUL LOAD PREFETCHES:          0 PREFETCH ISSUED TO LOWER LEVEL:          0  ACCURACY: -nan
PSCL5 TIMELY PREFETCHES:          0 LATE PREFETCHES: 0 DROPPED PREFETCHES: 0
PSCL5 PREFETCHES SAME FILL-ORIGIN LEVEL: 0 DIFFERENT FILL-ORIGIN LEVEL: 0

PSCL4 TOTAL     ACCESS:       8203  HIT:       8203  MISS:          0  HIT %:        100  MISS %:          0   MPKI: 0
PSCL4 LOAD TRANSLATION ACCESS:       8203  HIT:       8203  MISS:          0  HIT %:        100  MISS %:          0   MPKI: 0
PSCL4 PREFETCH  REQUESTED:          0  ISSUED:          0  USEFUL:          0  USELESS:          0
PSCL4 USEFUL LOAD PREFETCHES:          0 PREFETCH ISSUED TO LOWER LEVEL:          0  ACCURACY: -nan
PSCL4 TIMELY PREFETCHES:          0 LATE PREFETCHES: 0 DROPPED PREFETCHES: 0
PSCL4 PREFETCHES SAME FILL-ORIGIN LEVEL: 0 DIFFERENT FILL-ORIGIN LEVEL: 0

PSCL3 TOTAL     ACCESS:       8203  HIT:       8202  MISS:          1  HIT %:    99.9878  MISS %:  0.0121907   MPKI: 2.5e-06
PSCL3 LOAD TRANSLATION ACCESS:       8203  HIT:       8202  MISS:          1  HIT %:    99.9878  MISS %:  0.0121907   MPKI: 2.5e-06
PSCL3 PREFETCH  REQUESTED:          0  ISSUED:          0  USEFUL:          0  USELESS:          0
PSCL3 USEFUL LOAD PREFETCHES:          0 PREFETCH ISSUED TO LOWER LEVEL:          0  ACCURACY: -nan
PSCL3 TIMELY PREFETCHES:          0 LATE PREFETCHES: 0 DROPPED PREFETCHES: 0
PSCL3 PREFETCHES SAME FILL-ORIGIN LEVEL: 0 DIFFERENT FILL-ORIGIN LEVEL: 0

PSCL2 TOTAL     ACCESS:       8203  HIT:       8198  MISS:          5  HIT %:     99.939  MISS %:  0.0609533   MPKI: 1.25e-05
PSCL2 LOAD TRANSLATION ACCESS:       8203  HIT:       8198  MISS:          5  HIT %:     99.939  MISS %:  0.0609533   MPKI: 1.25e-05
PSCL2 PREFETCH  REQUESTED:          0  ISSUED:          0  USEFUL:          0  USELESS:          0
PSCL2 USEFUL LOAD PREFETCHES:          0 PREFETCH ISSUED TO LOWER LEVEL:          0  ACCURACY: -nan
PSCL2 TIMELY PREFETCHES:          0 LATE PREFETCHES: 0 DROPPED PREFETCHES: 0
PSCL2 PREFETCHES SAME FILL-ORIGIN LEVEL: 0 DIFFERENT FILL-ORIGIN LEVEL: 0

REUSE CACHE LLC REPLACEMENT FINAL STATS
CPU: 0
TOTAL ACCESS: 5262303 TOTAL MISS: 893836 TOTAL HIT: 4368467
TAG MISS: 972686 TAG HIT: 4979274
DATA MISS: 22483 DATA HIT: 3068726
TAG_HIT: 4979274 DATA_HIT: 3068726
MISS_RATE: 0.169856
HIT_RATE: 0.830144
In Reuse Cache:
Total lines: 0

RAW hits: 247955
Loads Generated: 149588077
Loads sent to L1D: 149340121
Stores Generated: 30583603
Stores sent to L1D: 30583606
Major fault: 0 Minor fault: 2746
Allocated PAGES: 2746

DRAM Statistics
 CHANNEL 0
 RQ ROW_BUFFER_HIT:     702307  ROW_BUFFER_MISS:     112921
 DBUS_CONGESTED:        235
 WQ ROW_BUFFER_HIT:      47865  ROW_BUFFER_MISS:      30780  FULL:     118128

 AVG_CONGESTED_CYCLE: 4
 All warmup complete: 2
Channel 0 Bank busy for read cycles: 0
Channel 0 Bank busy for write cycles: 0
Channel 0
Rank 0
0banks busy for read cycles: 605127167
0banks busy for write cycles: 11032
1banks busy for read cycles: 21540427
1banks busy for write cycles: 1139417
2banks busy for read cycles: 7029667
2banks busy for write cycles: 375997
3banks busy for read cycles: 1231385
3banks busy for write cycles: 231256
4banks busy for read cycles: 1234118
4banks busy for write cycles: 144151
5banks busy for read cycles: 488298
5banks busy for write cycles: 93927
6banks busy for read cycles: 783682
6banks busy for write cycles: 94607
7banks busy for read cycles: 100060
7banks busy for write cycles: 116846
8banks busy for read cycles: 5473
8banks busy for write cycles: 595979

CPU 0 Branch Prediction Accuracy: 88.2081% MPKI: 5.39239 Average ROB Occupancy at Mispredict: 13.9924
Branch types
NOT_BRANCH: 381708198 95.427%
BRANCH_DIRECT_JUMP: 584404 0.146101%
BRANCH_INDIRECT: 399 9.975e-05%
BRANCH_CONDITIONAL: 17611316 4.40283%
BRANCH_DIRECT_CALL: 22336 0.005584%
BRANCH_INDIRECT_CALL: 25495 0.00637375%
BRANCH_RETURN: 47828 0.011957%
BRANCH_OTHER: 0 0%

DRAM PAGES: 1048576
Allocated PAGES: 2746
